v 1 5 0 2
v2 3 2 0.2
v3 7 6 2
i1 4 8 1e-3
i2 0 6 1e-3
r1 1 5 1.5
r2 1 2 1
r3 5 2 50
r4 5 6 0.1
r5 2 6 1.5
r6 3 4 0.1
r7 8 0 1e3
r8 4 0 10

.option sparse
.dc v1 1 1 1
.option itol =  1e-10

