i1 1 0 3
r4 1 0 1
v2 0 0 0
r1219387 1 2 4
r33332 2 0 2
i311111 2 0 2
.dc i1 1 3 1
*.option iter
.option sparse
.option spd
