i1 1 0 4
r4 1 0 5
r1 1 2 4
r2 2 0 2
i3 2 0 2
*.option spd
.dc i1 1 3 1
