v1 1 0 3
r0 1 2 4
r1 2 0 2
i0 2 0 2
.dc v1 0 5 1
.plot V(1)
