v0 0 0 0 
r0 0 1 1
r1 1 2 1
r2 2 3 1
i0 0 1 1


.dc i0 1 2 1
.plot V(0) V(1) V(2) V(3)
