r1 0 2 5
r2 2 0 10
i1 2 0 1
.dc i1 0 5 1
.option spd
